%%%%%%%%%%%%%%%%%%%%%%%%%%%%%%%%%%%%%%%%%%%%%%%%%%%%%%%%%%%%%%%%%%%%%%%%%%%%%%%%
%                                                                              %
% Stanford University unstructured (SU2) configuration file                    %
% Case description: Tandem Cylinders                                           %
% Author: Eduardo S Molina                                                     %
% Institution: %
% Date:                                                                        %
% File Version SU2 v5.0                                                      %
%                                                                              %
%%%%%%%%%%%%%%%%%%%%%%%%%%%%%%%%%%%%%%%%%%%%%%%%%%%%%%%%%%%%%%%%%%%%%%%%%%%%%%%%

% ------------- DIRECT, ADJOINT, AND LINEARIZED PROBLEM DEFINITION ------------%
%
% Physical governing equations (POTENTIAL_FLOW, EULER, NAVIER_STOKES, 
%                               MULTI_SPECIES_NAVIER_STOKES, TWO_PHASE_FLOW, 
%                               COMBUSTION)
SOLVER= RANS
%PHYSICAL_PROBLEM= NAVIER_STOKES
%
% Specify turbulence model (NONE, SA, SA_NEG, SST)
KIND_TURB_MODEL= SA
%
% Specify Hybrid RANS/LES for SA family (NONE, SADES, SADDES)
HYBRID_RANSLES= NONE
%HYBRID_RANSLES= SA_EDDES
%
% DES Constant (0.65)
DES_CONST= 0.65
%
% Mathematical problem (DIRECT, ADJOINT, LINEARIZED, ONE_SHOT_ADJOINT)
MATH_PROBLEM= DIRECT
%
% Restart solution (NO, YES)
%RESTART_SOL= YES
RESTART_SOL= NO

% Compute the average solution for unsteady simulations (NO, YES)
COMPUTE_AVERAGE= NO
%COMPUTE_AVERAGE=NO
%
% Restart the average process from a previous averaged solution (NO, YES)
%RESTART_AVERAGE= NO

FREESTREAM_TURBULENCEINTENSITY = 0.05    %default=0.05
% READ_BINARY_RESTART= NO


%%%%% @Aniket and Xun: these are the config options related to UQ %%%%

% Mach number (non-dimensional, based on the free-stream values)
MACH_NUMBER= 0.01     %This is the flight Mach number, for now set to a stationary jet, hence the low value of 0.01
                      %For our work, use a value between 0.15 and 0.25

% Inlet boundary marker(s) with the following formats (NONE = no marker)
% Total Conditions: (inlet marker, total temp, total pressure, flow_direction_x,
%           flow_direction_y, flow_direction_z, ... ) where flow_direction is
%           a unit vector.


% Inlet Turbulence Intensity: to be available soon


%%%%%%%%%%%%%%%%%%%%%%%%%%%%%%%%%%%%%%%%%%%%%%%%%%%%%%%%%%%%%%%%%%%%%%







%
% ----------- COMPRESSIBLE AND INCOMPRESSIBLE FREE-STREAM DEFINITION ----------%
%
% Mach number (non-dimensional, based on the free-stream values)
%MACH_NUMBER= 0.01
%
% Angle of attack (degrees)
AoA= 0
%
% Side-slip angle (degrees)
SIDESLIP_ANGLE= 0.0

% Init option to choose between Reynolds (default) or thermodynamics quantities
% for initializing the solution (REYNOLDS, TD_CONDITIONS)
INIT_OPTION= TD_CONDITIONS
%INIT_OPTION= REYNOLDS
%
% Free-stream option to choose between density and temperature (default) for
% initializing the solution (TEMPERATURE_FS, DENSITY_FS)
FREESTREAM_OPTION= TEMPERATURE_FS

% Free-stream pressure (101325.0 N/m^2 by default, only Euler flows)  
FREESTREAM_PRESSURE= 6223
%
% Free-stream temperature (273.15 K by default)
FREESTREAM_TEMPERATURE= 300
%
% Reynolds number (non-dimensional, based on the free-stream values)
REYNOLDS_NUMBER= 5601
%
% Reynolds length (1 m, 1 inch by default)
REYNOLDS_LENGTH= 1.0

% -------------- COMPRESSIBLE AND INCOMPRESSIBLE FLUID CONSTANTS --------------%
%
% Different gas model (STANDARD_AIR, IDEAL_GAS, VW_GAS, PR_GAS)
FLUID_MODEL= STANDARD_AIR
%
% Ratio of specific heats (1.4 (air), only for compressible flows)
GAMMA_VALUE= 1.4
%
% Specific gas constant (287.87 J/kg*K (air), only for compressible flows)
GAS_CONSTANT= 287.87

% ---------------------- REFERENCE VALUE DEFINITION ---------------------------%
%
% Reference origin for moment computation
REF_ORIGIN_MOMENT_X = 0.00
REF_ORIGIN_MOMENT_Y = 0.00
REF_ORIGIN_MOMENT_Z = 0.00
%
% Reference length for pitching, rolling, and yawing non-dimensional moment
REF_LENGTH= 1.0
%
% Reference area for force coefficients (0 implies automatic calculation)
REF_AREA=0 
%
% Flow non-dimensionalization (DIMENSIONAL, FREESTREAM_PRESS_EQ_ONE,
%                              FREESTREAM_VEL_EQ_MACH, FREESTREAM_VEL_EQ_ONE)
REF_DIMENSIONALIZATION= DIMENSIONAL
%REF_DIMENSIONALIZATION= FREESTREAM_PRESS_EQ_ONE
% ------------------------- UNSTEADY SIMULATION -------------------------------%
%
% Unsteady simulation (NO, TIME_STEPPING, DUAL_TIME_STEPPING-1ST_ORDER, 
%                      DUAL_TIME_STEPPING-2ND_ORDER, TIME_SPECTRAL)
%UNSTEADY_SIMULATION= NO
%UNSTEADY_SIMULATION= DUAL_TIME_STEPPING-2ND_ORDER
TIME_DOMAIN = NO
%TIME_MARCHING = DUAL_TIME_STEPPING-2ND_ORDER
%
% Time Step for dual time stepping simulations (s)
% U_inf=24m/s;   dt*=3.75e-4; c=c_mac=1.0m;  dt=1.562e-5
%UNST_TIMESTEP= 1.5e-5
%UNST_TIMESTEP= 7.5e-8
%UNST_TIMESTEP= 1.0e-2
TIME_STEP= 1.0e-5
%
% Total Physical Time for dual time stepping simulations (s)
MAX_TIME= 20000000.0
%
% Unsteady Courant-Friedrichs-Lewy number of the finest grid
UNST_CFL_NUMBER= 0.0
%
% Number of internal iterations (dual time method)
INNER_ITER= 10000
%
% Iteration number to begin unsteady restarts
%UNST_RESTART_ITER= 28002
RESTART_ITER= 2


% ----------------------- BOUNDARY CONDITION DEFINITION -----------------------%
%
%% Marker of the Euler boundary (0 = no marker)
MARKER_HEATFLUX= (nozzle, 0.0)  

%% Marker of the far field (0 = no marker)
MARKER_FAR= (farfield1, farfield2, farfield3)

MARKER_OUTLET= (outlet,  6223)


%% Marker of the surface which is going to be plotted or designed
MARKER_PLOTTING= (nozzle, inlet)

%% Marker of the surface where the functional (Cd, Cl, etc.) will be evaluated
MARKER_MONITORING= (nozzle)

% Inlet boundary type (TOTAL_CONDITIONS, MASS_FLOW)
INLET_TYPE= TOTAL_CONDITIONS

%
% Read inlet profile from a file (YES, NO) default: NO
SPECIFIED_INLET_PROFILE= YES
%
% File specifying inlet profile

INLET_FILENAME= example_inlet.dat

% INLET_MATCHING_TOLERANCE= 1e-3
%
% Inlet boundary marker(s) with the following formats (NONE = no marker)
% Total Conditions: (inlet marker, total temp, total pressure, flow_direction_x,
%           flow_direction_y, flow_direction_z, ... ) where flow_direction is
%           a unit vector.
% Mass Flow: (inlet marker, density, velocity magnitude, flow_direction_x,
%           flow_direction_y, flow_direction_z, ... ) where flow_direction is
%           a unit vector.
% Inc. Velocity: (inlet marker, temperature, velocity magnitude, flow_direction_x,
%           flow_direction_y, flow_direction_z, ... ) where flow_direction is
%           a unit vector.
% Inc. Pressure: (inlet marker, temperature, total pressure, flow_direction_x,
%           flow_direction_y, flow_direction_z, ... ) where flow_direction is
%           a unit vector.

%
MARKER_INLET= (inlet, 348.6, 10525, 1, 0, 0)    %the 3rd argument is p_0=10525. we want to vary that +/- 5 or 10% around this value

%
% ------------- COMMON PARAMETERS TO DEFINE THE NUMERICAL METHOD --------------%
% Numerical method for spatial gradients (GREEN_GAUSS, LEAST_SQUARES, 
%                                         WEIGHTED_LEAST_SQUARES)
NUM_METHOD_GRAD= WEIGHTED_LEAST_SQUARES
%NUM_METHOD_GRAD= GREEN_GAUSS
%NUM_METHOD_GRAD_RECON = LEAST_SQUARES
%USE_ACCURATE_FLUX_JACOBIANS= YES
%USE_ACCURATE_FLUX_JACOBIANS= NO

%
% Courant-Friedrichs-Lewy condition of the finest grid
CFL_NUMBER= 10
%
% Adaptive CFL number (NO, YES)
CFL_ADAPT= NO
%
% Parameters of the adaptive CFL number (factor down, factor up, CFL min value,
%                                        CFL max value )
%CFL_ADAPT_PARAM= ( 0.1, 1.2 , 25.0, 250.0 )   %T0
CFL_ADAPT_PARAM= ( 0.1, 1.1 , 1.0, 5.0 )
%CFL_ADAPT_PARAM= ( 0.0, 0.5, 1.25, 50.0 )
%
% Runge-Kutta alpha coefficients
RK_ALPHA_COEFF= ( 0.66667, 0.66667, 1.000000 )
%
% Number of total iterations
%EXT_ITER=83002 
TIME_ITER=28002 
%%
%% ----------------------- SLOPE LIMITER DEFINITION ----------------------------%
% Coefficient for the limiter
%VENKAT_LIMITER_COEFF= 0.3
%%
%% Reference element length for computing the slope and sharp edges 
%%                              limiters (0.1 m, 5.0 in by default)
%REF_ELEM_LENGTH= 0.1
%%
%% Coefficient for the limiter
%LIMITER_COEFF= 0.3
%%
%% Freeze the value of the limiter after a number of iterations
%LIMITER_ITER= 999999
%%
%% Coefficient for the sharp edges limiter
%SHARP_EDGES_COEFF= 3.0
%%
%% Reference coefficient (sensitivity) for detecting sharp edges.
%REF_SHARP_EDGES= 3.0
%%
%% Remove sharp edges from the sensitivity evaluation (NO, YES)
%SENS_REMOVE_SHARP= NO
%
% ------------------------ LINEAR SOLVER DEFINITION ---------------------------%
%
% Linear solver or smoother for implicit formulations (BCGSTAB, FGMRES, SMOOTHER_JACOBI, 
%                                                      SMOOTHER_ILU0, SMOOTHER_LUSGS, 
%                                                      SMOOTHER_LINELET)
LINEAR_SOLVER= FGMRES
%
% Preconditioner of the Krylov linear solver (ILU0, LU_SGS, LINELET, JACOBI)
%LINEAR_SOLVER_PREC= LU_SGS
LINEAR_SOLVER_PREC= ILU
%LINEAR_SOLVER_ILU_FILL_IN= 0
%
% Minimum error of the linear solver for implicit formulations
LINEAR_SOLVER_ERROR= 1E-10
%
% Max number of iterations of the linear solver for the implicit formulation
LINEAR_SOLVER_ITER= 10
%
% -------------------- FLOW NUMERICAL METHOD DEFINITION -----------------------%
%
% Convective numerical method (JST, LAX-FRIEDRICH, CUSP, ROE, AUSM, HLLC,
%                              TURKEL_PREC, MSW)
CONV_NUM_METHOD_FLOW= SLAU2
JST_SENSOR_COEFF= ( 0.0, 0.0009765625 ) 



%CONV_NUM_METHOD_FLOW= JST
%CONV_NUM_METHOD_FLOW= ROE
%ROE_LOW_DISSIPATION= NTS
%
% Spatial numerical order integration (1ST_ORDER, 2ND_ORDER, 2ND_ORDER_LIMITER)
MUSCL_FLOW= YES
%MUSCL_FLOW= NO
%
% Slope limiter (VENKATAKRISHNAN, BARTH_JESPERSEN)
%SLOPE_LIMITER_FLOW=VENKATAKRISHNAN
SLOPE_LIMITER_FLOW= NONE
%
% Entropy fix coefficient (0.0 implies no entropy fixing, 1.0 implies scalar
%                          artificial dissipation)
ENTROPY_FIX_COEFF= 0.0
%
% 1st, 2nd and 4th order artificial dissipation coefficients
%AD_COEFF_FLOW= ( 0.15, 0.5, 0.02 )
%
% Viscous limiter (NO, YES)
%VISCOUS_LIMITER_FLOW= NO
%
% Time discretization (RUNGE-KUTTA_EXPLICIT, EULER_IMPLICIT, EULER_EXPLICIT)
TIME_DISCRE_FLOW= EULER_IMPLICIT
%
% Relaxation coefficient
%RELAXATION_FACTOR_FLOW= 1.0

% -------------------- TURBULENT NUMERICAL METHOD DEFINITION ------------------%
%
% Convective numerical method (SCALAR_UPWIND)
CONV_NUM_METHOD_TURB= SCALAR_UPWIND
%
% Spatial numerical order integration (1ST_ORDER, 2ND_ORDER, 2ND_ORDER_LIMITER)
MUSCL_TURB= NO
%
% Slope limiter (VENKATAKRISHNAN)
SLOPE_LIMITER_TURB= NONE
%
% Viscous limiter (NO, YES)
%VISCOUS_LIMITER_TURB= NO
%
% Time discretization (EULER_IMPLICIT)
TIME_DISCRE_TURB= EULER_IMPLICIT
%
% Reduction factor of the CFL coefficient in the turbulence problem
%CFL_REDUCTION_TURB= 1.0
%
% Relaxation coefficient
%RELAXATION_FACTOR_TURB= 1.0

% --------------------------- CONVERGENCE PARAMETERS --------------------------%
% Convergence criteria (CAUCHY, RESIDUAL)
%
CONV_FIELD= REL_RMS_DENSITY
%
% Residual reduction (order of magnitude with respect to the initial value)
%RESIDUAL_REDUCTION= 6
%
% Min value of the residual (log10 of the residual)
CONV_RESIDUAL_MINVAL= -15
%
% Start Cauchy criteria at iteration number
CONV_STARTITER = 0
%
% Number of elements to apply the criteria
CONV_CAUCHY_ELEMS= 100
%
% Epsilon to control the series convergence
CONV_CAUCHY_EPS= 1E-5
%
% Function to apply the criteria (LIFT, DRAG, SENS_GEOMETRY, SENS_MACH,
%                                 DELTA_LIFT, DELTA_DRAG)
%CONV_FIELD= DRAG
%
% ------------------------- GRID ADAPTATION STRATEGY --------------------------%
%
% KIND_ADAPT= PERIODIC

% Percentage of new elements (% of the original number of elements)
% NEW_ELEMS= 5
%
% Kind of grid adaptation (NONE, PERIODIC, FULL, FULL_FLOW, GRAD_FLOW, FULL_ADJOINT,
%                          GRAD_ADJOINT, GRAD_FLOW_ADJ, ROBUST,
%                          FULL_LINEAR, COMPUTABLE, COMPUTABLE_ROBUST,
%                          REMAINING, WAKE, SMOOTHING, SUPERSONIC_SHOCK, 
%                          TWOPHASE)
%
% Scale factor for the dual volume
% DUALVOL_POWER= 0.5
%
% Adapt the boundary elements (NO, YES)
% ADAPT_BOUNDARY= YES

% ------------------------- INPUT/OUTPUT INFORMATION --------------------------%
% Mesh input file (when copied to run folder, we will use this relative path from template run instead of also copying mesh file which is very big)
MESH_FILENAME= ../../template_run/jet_NLR_gr1.su2
%
% Mesh input file format (SU2, CGNS, NETCDF_ASCII)
MESH_FORMAT= SU2
%
MESH_OUT_FILENAME= mesh_out.su2
%OUTPUT_FILES = (RESTART, TECPLOT, SURFACE_TECPLOT, STL)
%OUTPUT_FILES = (RESTART_ASCII, TECPLOT,  SURFACE_TECPLOT)
OUTPUT_FILES = (RESTART, RESTART_ASCII, PARAVIEW, SURFACE_PARAVIEW)
%OUTPUT_FILES = (RESTART)
SCREEN_OUTPUT = (TIME_ITER, INNER_ITER, RMS_DENSITY, RMS_NU_TILDE, LIFT, DRAG)
HISTORY_OUTPUT = (ITER, RMS_RES, REL_RMS_RES, AERO_COEFF)
VOLUME_OUTPUT = (PRIMITIVE, VORTEX_IDENTIFICATION)

%
% Restart flow input file
SOLUTION_FILENAME= restart_flow.dat
%
% Restart adjoint input file
SOLUTION_ADJ_FILENAME= solution_adj.dat
%
% Output file format (PARAVIEW, TECPLOT)
TABULAR_FORMAT = CSV

%
% Output file convergence history (w/o extension) 
CONV_FILENAME= history
%
% Output file restart flow
RESTART_FILENAME= restart_flow.dat
%
% Output file restart adjoint
RESTART_ADJ_FILENAME= restart_adj.dat
%
% Output file flow (w/o extension) variables
VOLUME_FILENAME= flow
%
% Output file adjoint (w/o extension) variables
VOLUME_ADJ_FILENAME= adjoint
%
% Output Objective function gradient (using continuous adjoint)
GRAD_OBJFUNC_FILENAME= of_grad.dat
%
% Output file surface flow coefficient (w/o extension)
SURFACE_FILENAME= surface_flow
%
% Output file surface adjoint coefficient (w/o extension)
SURFACE_ADJ_FILENAME= surface_adjoint
%
% Writing solution file frequency
% WRT_SOL_FREQ= 1000
%
% Writing solution file frequency for physical time steps (dual time)
% OUTPUT_WRT_FREQ = 1000
OUTPUT_WRT_FREQ = 500
%WRT_SOL_FREQ_DUALTIME= 1000
%WRT_SURF_FREQ_DUALTIME= 1000
%
% Writing convergence history frequency
%WRT_CON_FREQ= 1
%
% Writing convergence history frequency (dual time, only written to screen)
% WRT_CON_FREQ_DUALTIME= 1
% WRT_LIMITERS= NO
% WRT_RESIDUALS= NO